data_SIFSIX-1-Cu
_audit_creation_date              2020-05-06
_audit_creation_method            'Materials Studio'
_symmetry_space_group_name_H-M    'P1'
_symmetry_Int_Tables_number       1
_symmetry_cell_setting            triclinic
loop_
_symmetry_equiv_pos_as_xyz
  x,y,z
_cell_length_a                    22.3590
_cell_length_b                    22.3590
_cell_length_c                    16.0250
_cell_angle_alpha                 90.0000
_cell_angle_beta                  90.0000
_cell_angle_gamma                 90.0000
loop_
_atom_site_label
_atom_site_type_symbol
_atom_site_fract_x
_atom_site_fract_y
_atom_site_fract_z
_atom_site_U_iso_or_equiv
_atom_site_adp_type
_atom_site_occupancy
C1     C     0.37141   0.28155   0.30938   0.02884  Uani   0.50
H2     H     0.34723   0.30728   0.35527   0.03400  Uiso   0.50
C3     C     0.43430   0.28156   0.31107   0.03386  Uani   0.50
H4     H     0.45759   0.30661   0.35892   0.04000  Uiso   0.50
C5     C     0.12852   0.21869   0.30937   0.02884  Uani   0.50
H6     H     0.15271   0.19293   0.35521   0.03400  Uiso   0.50
C7     C     0.06564   0.21866   0.31105   0.03386  Uani   0.50
H8     H     0.04235   0.19356   0.35886   0.04000  Uiso   0.50
C9     C     0.21860   0.37159   0.30941   0.02884  Uani   0.50
H10    H     0.19288   0.34742   0.35532   0.03400  Uiso   0.50
C11    C     0.21859   0.43447   0.31109   0.03386  Uani   0.50
H12    H     0.19358   0.45778   0.35897   0.04000  Uiso   0.50
C13    C     0.28143   0.12867   0.30927   0.02884  Uani   0.50
H14    H     0.30723   0.15285   0.35510   0.03400  Uiso   0.50
C15    C     0.28148   0.06579   0.31094   0.03386  Uani   0.50
H16    H     0.30660   0.04249   0.35870   0.04000  Uiso   0.50
C17    C     0.12851   0.28154   0.19087   0.02884  Uani   0.50
H18    H     0.15269   0.30729   0.14500   0.03400  Uiso   0.50
C19    C     0.06563   0.28153   0.18916   0.03386  Uani   0.50
H20    H     0.04233   0.30659   0.14133   0.04000  Uiso   0.50
C21    C     0.37141   0.21878   0.19080   0.02884  Uani   0.50
H22    H     0.34722   0.19306   0.14490   0.03400  Uiso   0.50
C23    C     0.43429   0.21877   0.18909   0.03386  Uani   0.50
H24    H     0.45758   0.19372   0.14123   0.04000  Uiso   0.50
C25    C     0.28128   0.37156   0.19074   0.02884  Uani   0.50
H26    H     0.30698   0.34737   0.14484   0.03400  Uiso   0.50
C27    C     0.28130   0.43445   0.18903   0.03386  Uani   0.50
H28    H     0.30631   0.45772   0.14113   0.04000  Uiso   0.50
C29    C     0.21850   0.12869   0.19085   0.02884  Uani   0.50
H30    H     0.19271   0.15288   0.14505   0.03400  Uiso   0.50
C31    C     0.21849   0.06581   0.18916   0.03386  Uani   0.50
H32    H     0.19337   0.04252   0.14137   0.04000  Uiso   0.50
Cu33   Cu    0.24996   0.25013   0.25011   0.01134  Uani   1.00
Si34   Si    0.24989   0.25011   0.00014   0.01406  Uani   1.00
F35    F     0.24994   0.25012   0.38396   0.01749  Uani   1.00
F36    F     0.24993   0.25008   0.11630   0.01749  Uani   1.00
F37    F     0.19630   0.19720   0.00018   0.02209  Uani   0.28
F38    F     0.30342   0.30308   0.00016   0.02209  Uani   0.28
F39    F     0.30282   0.19655   0.00020   0.02209  Uani   0.28
F40    F     0.19694   0.30367   0.00017   0.02209  Uani   0.28
N41    N     0.15919   0.25013   0.25013   0.01514  Uani   1.00
C42    C     0.03338   0.25007   0.25009   0.01994  Uani   1.00
N43    N     0.34073   0.25015   0.25010   0.01514  Uani   1.00
C44    C     0.46655   0.25016   0.25007   0.01994  Uani   1.00
N45    N     0.24996   0.15935   0.25011   0.01514  Uani   1.00
C46    C     0.24997   0.03354   0.25004   0.01994  Uani   1.00
N47    N     0.24994   0.34090   0.25010   0.01514  Uani   1.00
C48    C     0.24995   0.46672   0.25005   0.01994  Uani   1.00
C49    C     0.87140   0.28134   0.30937   0.02884  Uani   0.50
H50    H     0.84719   0.30702   0.35530   0.03400  Uiso   0.50
C51    C     0.93427   0.28138   0.31108   0.03386  Uani   0.50
H52    H     0.95754   0.30641   0.35898   0.04000  Uiso   0.50
C53    C     0.62851   0.21862   0.30928   0.02884  Uani   0.50
H54    H     0.65268   0.19285   0.35514   0.03400  Uiso   0.50
C55    C     0.56562   0.21866   0.31100   0.03386  Uani   0.50
H56    H     0.54232   0.19358   0.35881   0.04000  Uiso   0.50
C57    C     0.71867   0.37141   0.30934   0.02884  Uani   0.50
H58    H     0.69297   0.34724   0.35527   0.03400  Uiso   0.50
C59    C     0.71868   0.43430   0.31102   0.03386  Uani   0.50
H60    H     0.69366   0.45760   0.35889   0.04000  Uiso   0.50
C61    C     0.78142   0.12850   0.30926   0.02884  Uani   0.50
H62    H     0.80716   0.15269   0.35513   0.03400  Uiso   0.50
C63    C     0.78145   0.06562   0.31093   0.03386  Uani   0.50
H64    H     0.80655   0.04233   0.35873   0.04000  Uiso   0.50
C65    C     0.62854   0.28151   0.19081   0.02884  Uani   0.50
H66    H     0.65274   0.30726   0.14497   0.03400  Uiso   0.50
C67    C     0.56565   0.28157   0.18914   0.03386  Uani   0.50
H68    H     0.54237   0.30669   0.14135   0.04000  Uiso   0.50
C69    C     0.87144   0.21862   0.19073   0.02884  Uani   0.50
H70    H     0.84728   0.19289   0.14483   0.03400  Uiso   0.50
C71    C     0.93432   0.21865   0.18904   0.03386  Uani   0.50
H72    H     0.95764   0.19364   0.14118   0.04000  Uiso   0.50
C73    C     0.78143   0.37138   0.19073   0.02884  Uani   0.50
H74    H     0.80716   0.34718   0.14487   0.03400  Uiso   0.50
C75    C     0.78146   0.43427   0.18903   0.03386  Uani   0.50
H76    H     0.80651   0.45754   0.14117   0.04000  Uiso   0.50
C77    C     0.71853   0.12850   0.19079   0.02884  Uani   0.50
H78    H     0.69273   0.15269   0.14498   0.03400  Uiso   0.50
C79    C     0.71854   0.06562   0.18908   0.03386  Uani   0.50
H80    H     0.69345   0.04233   0.14127   0.04000  Uiso   0.50
Cu81   Cu    0.74998   0.24995   0.25002   0.01134  Uani   1.00
Si82   Si    0.74996   0.24994  -0.00004   0.01406  Uani   1.00
F83    F     0.74999   0.24995   0.38381   0.01749  Uani   1.00
F84    F     0.74995   0.24992   0.11616   0.01749  Uani   1.00
F85    F     0.69756   0.19586  -0.00008   0.02209  Uani   0.28
F86    F     0.80238   0.30401  -0.00014   0.02209  Uani   0.28
F87    F     0.80404   0.19753  -0.00018   0.02209  Uani   0.28
F88    F     0.69589   0.30235  -0.00018   0.02209  Uani   0.28
N89    N     0.65920   0.25002   0.25001   0.01514  Uani   1.00
C90    C     0.53338   0.25013   0.25007   0.01994  Uani   1.00
N91    N     0.84074   0.24998   0.25002   0.01514  Uani   1.00
C92    C     0.96655   0.25004   0.25006   0.01994  Uani   1.00
N93    N     0.74998   0.15918   0.25001   0.01514  Uani   1.00
C94    C     0.75002   0.03336   0.24998   0.01994  Uani   1.00
N95    N     0.75002   0.34072   0.25002   0.01514  Uani   1.00
C96    C     0.75007   0.46654   0.25001   0.01994  Uani   1.00
C97    C     0.37149   0.78154   0.30924   0.02884  Uani   0.50
H98    H     0.34732   0.80731   0.35509   0.03400  Uiso   0.50
C99    C     0.43438   0.78155   0.31090   0.03386  Uani   0.50
H100   H     0.45768   0.80663   0.35870   0.04000  Uiso   0.50
C101   C     0.12857   0.71871   0.30929   0.02884  Uani   0.50
H102   H     0.15275   0.69298   0.35517   0.03400  Uiso   0.50
C103   C     0.06569   0.71868   0.31094   0.03386  Uani   0.50
H104   H     0.04239   0.69364   0.35879   0.04000  Uiso   0.50
C105   C     0.21854   0.87157   0.30923   0.02884  Uani   0.50
H106   H     0.19275   0.84737   0.35504   0.03400  Uiso   0.50
C107   C     0.21852   0.93445   0.31092   0.03386  Uani   0.50
H108   H     0.19340   0.95773   0.35872   0.04000  Uiso   0.50
C109   C     0.28138   0.62867   0.30931   0.02884  Uani   0.50
H110   H     0.30714   0.65285   0.35516   0.03400  Uiso   0.50
C111   C     0.28136   0.56579   0.31103   0.03386  Uani   0.50
H112   H     0.30640   0.54250   0.35889   0.04000  Uiso   0.50
C113   C     0.12859   0.78144   0.19066   0.02884  Uani   0.50
H114   H     0.15278   0.80714   0.14474   0.03400  Uiso   0.50
C115   C     0.06571   0.78143   0.18891   0.03386  Uani   0.50
H116   H     0.04242   0.80645   0.14102   0.04000  Uiso   0.50
C117   C     0.37146   0.71869   0.19073   0.02884  Uani   0.50
H118   H     0.34726   0.69297   0.14485   0.03400  Uiso   0.50
C119   C     0.43434   0.71868   0.18901   0.03386  Uani   0.50
H120   H     0.45761   0.69359   0.14117   0.04000  Uiso   0.50
C121   C     0.28142   0.87158   0.19076   0.02884  Uani   0.50
H122   H     0.30717   0.84740   0.14487   0.03400  Uiso   0.50
C123   C     0.28144   0.93446   0.18908   0.03386  Uani   0.50
H124   H     0.30653   0.95776   0.14127   0.04000  Uiso   0.50
C125   C     0.21864   0.62868   0.19069   0.02884  Uani   0.50
H126   H     0.19296   0.65287   0.14476   0.03400  Uiso   0.50
C127   C     0.21861   0.56580   0.18901   0.03386  Uani   0.50
H128   H     0.19357   0.54251   0.14114   0.04000  Uiso   0.50
Cu129  Cu    0.25002   0.75012   0.25001   0.01134  Uani   1.00
Si130  Si    0.25002   0.75009   0.00009   0.01406  Uani   1.00
F131   F     0.25002   0.75012   0.38388   0.01749  Uani   1.00
F132   F     0.25003   0.75011   0.11623   0.01749  Uani   1.00
F133   F     0.19577   0.69785   0.00019   0.02209  Uani   0.28
F134   F     0.30423   0.80238   0.00019   0.02209  Uani   0.28
F135   F     0.30228   0.69587   0.00022   0.02209  Uani   0.28
F136   F     0.19776   0.80432   0.00018   0.02209  Uani   0.28
N137   N     0.15925   0.75010   0.25000   0.01514  Uani   1.00
C138   C     0.03344   0.75005   0.24991   0.01994  Uani   1.00
N139   N     0.34080   0.75011   0.25002   0.01514  Uani   1.00
C140   C     0.46662   0.75011   0.24994   0.01994  Uani   1.00
N141   N     0.25001   0.65935   0.25001   0.01514  Uani   1.00
C142   C     0.24997   0.53354   0.25003   0.01994  Uani   1.00
N143   N     0.25000   0.84089   0.25001   0.01514  Uani   1.00
C144   C     0.24998   0.96671   0.25002   0.01994  Uani   1.00
C145   C     0.87145   0.78136   0.30914   0.02884  Uani   0.50
H146   H     0.84725   0.80704   0.35506   0.03400  Uiso   0.50
C147   C     0.93433   0.78139   0.31086   0.03386  Uani   0.50
H148   H     0.95760   0.80642   0.35875   0.04000  Uiso   0.50
C149   C     0.62858   0.71861   0.30912   0.02884  Uani   0.50
H150   H     0.65276   0.69287   0.35501   0.03400  Uiso   0.50
C151   C     0.56570   0.71863   0.31084   0.03386  Uani   0.50
H152   H     0.54240   0.69357   0.35868   0.04000  Uiso   0.50
C153   C     0.71878   0.87137   0.30932   0.02884  Uani   0.50
H154   H     0.69315   0.84717   0.35530   0.03400  Uiso   0.50
C155   C     0.71876   0.93425   0.31105   0.03386  Uani   0.50
H156   H     0.69380   0.95752   0.35901   0.04000  Uiso   0.50
C157   C     0.78157   0.62851   0.30908   0.02884  Uani   0.50
H158   H     0.80736   0.65271   0.35489   0.03400  Uiso   0.50
C159   C     0.78160   0.56563   0.31081   0.03386  Uani   0.50
H160   H     0.80675   0.54236   0.35857   0.04000  Uiso   0.50
C161   C     0.62859   0.78145   0.19061   0.02884  Uani   0.50
H162   H     0.65278   0.80720   0.14476   0.03400  Uiso   0.50
C163   C     0.56570   0.78150   0.18895   0.03386  Uani   0.50
H164   H     0.54241   0.80660   0.14114   0.04000  Uiso   0.50
C165   C     0.87150   0.71862   0.19051   0.02884  Uani   0.50
H166   H     0.84734   0.69288   0.14463   0.03400  Uiso   0.50
C167   C     0.93439   0.71864   0.18884   0.03386  Uani   0.50
H168   H     0.95770   0.69361   0.14099   0.04000  Uiso   0.50
C169   C     0.78135   0.87141   0.19053   0.02884  Uani   0.50
H170   H     0.80701   0.84724   0.14456   0.03400  Uiso   0.50
C171   C     0.78133   0.93429   0.18886   0.03386  Uani   0.50
H172   H     0.80630   0.95760   0.14093   0.04000  Uiso   0.50
C173   C     0.71854   0.62847   0.19076   0.02884  Uani   0.50
H174   H     0.69270   0.65264   0.14499   0.03400  Uiso   0.50
C175   C     0.71853   0.56559   0.18910   0.03386  Uani   0.50
H176   H     0.69337   0.54228   0.14139   0.04000  Uiso   0.50
Cu177  Cu    0.75003   0.74993   0.24982   0.01134  Uani   1.00
Si178  Si    0.75003   0.74978  -0.00025   0.01406  Uani   1.00
F179   F     0.75007   0.74985   0.38360   0.01749  Uani   1.00
F180   F     0.75002   0.74986   0.11595   0.01749  Uani   1.00
F181   F     0.69775   0.69558  -0.00027   0.02209  Uani   0.28
F182   F     0.80240   0.80390  -0.00032   0.02209  Uani   0.28
F183   F     0.80415   0.69741  -0.00040   0.02209  Uani   0.28
F184   F     0.69582   0.80206  -0.00040   0.02209  Uani   0.28
N185   N     0.65926   0.75000   0.24984   0.01514  Uani   1.00
C186   C     0.53344   0.75008   0.24991   0.01994  Uani   1.00
N187   N     0.84080   0.74999   0.24980   0.01514  Uani   1.00
C188   C     0.96662   0.75003   0.24987   0.01994  Uani   1.00
N189   N     0.75006   0.65917   0.24989   0.01514  Uani   1.00
C190   C     0.75007   0.53335   0.24998   0.01994  Uani   1.00
N191   N     0.75006   0.84071   0.24990   0.01514  Uani   1.00
C192   C     0.75004   0.96653   0.24997   0.01994  Uani   1.00
C193   C     0.37143   0.28123   0.80953   0.02884  Uani   0.50
H194   H     0.34726   0.30692   0.85548   0.03400  Uiso   0.50
C195   C     0.43431   0.28117   0.81124   0.03386  Uani   0.50
H196   H     0.45762   0.30612   0.85918   0.04000  Uiso   0.50
C197   C     0.12853   0.21847   0.80929   0.02884  Uani   0.50
H198   H     0.15273   0.19268   0.85508   0.03400  Uiso   0.50
C199   C     0.06564   0.21842   0.81098   0.03386  Uani   0.50
H200   H     0.04237   0.19325   0.85873   0.04000  Uiso   0.50
C201   C     0.21855   0.37152   0.80931   0.02884  Uani   0.50
H202   H     0.19273   0.34736   0.85512   0.03400  Uiso   0.50
C203   C     0.21857   0.43441   0.81098   0.03386  Uani   0.50
H204   H     0.19344   0.45772   0.85873   0.04000  Uiso   0.50
C205   C     0.28132   0.12860   0.80947   0.02884  Uani   0.50
H206   H     0.30699   0.15279   0.85542   0.03400  Uiso   0.50
C207   C     0.28135   0.06572   0.81115   0.03386  Uani   0.50
H208   H     0.30634   0.04243   0.85907   0.04000  Uiso   0.50
C209   C     0.12849   0.28148   0.69094   0.02884  Uani   0.50
H210   H     0.15266   0.30729   0.64513   0.03400  Uiso   0.50
C211   C     0.06561   0.28146   0.68926   0.03386  Uani   0.50
H212   H     0.04230   0.30660   0.64151   0.04000  Uiso   0.50
C213   C     0.37138   0.21866   0.69074   0.02884  Uani   0.50
H214   H     0.34718   0.19304   0.64475   0.03400  Uiso   0.50
C215   C     0.43426   0.21861   0.68904   0.03386  Uani   0.50
H216   H     0.45753   0.19364   0.64109   0.04000  Uiso   0.50
C217   C     0.28153   0.37147   0.69094   0.02884  Uani   0.50
H218   H     0.30730   0.34726   0.64512   0.03400  Uiso   0.50
C219   C     0.28159   0.43435   0.68924   0.03386  Uani   0.50
H220   H     0.30673   0.45762   0.64146   0.04000  Uiso   0.50
C221   C     0.21870   0.12860   0.69073   0.02884  Uani   0.50
H222   H     0.19303   0.15277   0.64477   0.03400  Uiso   0.50
C223   C     0.21872   0.06571   0.68900   0.03386  Uani   0.50
H224   H     0.19375   0.04242   0.64108   0.04000  Uiso   0.50
Cu225  Cu    0.24996   0.25005   0.75013   0.01134  Uani   1.00
Si226  Si    0.24991   0.25011   0.50015   0.01406  Uani   1.00
F227   F     0.24991   0.25008   0.88396   0.01749  Uani   1.00
F228   F     0.24993   0.25009   0.61631   0.01749  Uani   1.00
F229   F     0.19621   0.19732   0.50019   0.02209  Uani   0.28
F230   F     0.30356   0.30297   0.50023   0.02209  Uani   0.28
F231   F     0.30271   0.19641   0.50015   0.02209  Uani   0.28
F232   F     0.19706   0.30377   0.50020   0.02209  Uani   0.28
N233   N     0.15918   0.25000   0.75012   0.01514  Uani   1.00
C234   C     0.03337   0.24993   0.75012   0.01994  Uani   1.00
N235   N     0.34073   0.24997   0.75013   0.01514  Uani   1.00
C236   C     0.46654   0.24987   0.75014   0.01994  Uani   1.00
N237   N     0.24999   0.15928   0.75011   0.01514  Uani   1.00
C238   C     0.25004   0.03346   0.75007   0.01994  Uani   1.00
N239   N     0.25002   0.34082   0.75014   0.01514  Uani   1.00
C240   C     0.25009   0.46664   0.75010   0.01994  Uani   1.00
C241   C     0.87139   0.28130   0.80934   0.02884  Uani   0.50
H242   H     0.84719   0.30706   0.85518   0.03400  Uiso   0.50
C243   C     0.93427   0.28134   0.81104   0.03386  Uani   0.50
H244   H     0.95755   0.30647   0.85883   0.04000  Uiso   0.50
C245   C     0.62852   0.21852   0.80943   0.02884  Uani   0.50
H246   H     0.65271   0.19286   0.85538   0.03400  Uiso   0.50
C247   C     0.56564   0.21852   0.81116   0.03386  Uani   0.50
H248   H     0.54236   0.19353   0.85909   0.04000  Uiso   0.50
C249   C     0.71846   0.37134   0.80914   0.02884  Uani   0.50
H250   H     0.69268   0.34717   0.85499   0.03400  Uiso   0.50
C251   C     0.71843   0.43422   0.81078   0.03386  Uani   0.50
H252   H     0.69328   0.45753   0.85852   0.04000  Uiso   0.50
C253   C     0.78125   0.12842   0.80936   0.02884  Uani   0.50
H254   H     0.80690   0.15259   0.85534   0.03400  Uiso   0.50
C255   C     0.78128   0.06553   0.81101   0.03386  Uani   0.50
H256   H     0.80627   0.04223   0.85891   0.04000  Uiso   0.50
C257   C     0.62849   0.28118   0.69073   0.02884  Uani   0.50
H258   H     0.65266   0.30688   0.64482   0.03400  Uiso   0.50
C259   C     0.56561   0.28118   0.68905   0.03386  Uani   0.50
H260   H     0.54231   0.30618   0.64116   0.04000  Uiso   0.50
C261   C     0.87142   0.21839   0.69090   0.02884  Uani   0.50
H262   H     0.84724   0.19260   0.64506   0.03400  Uiso   0.50
C263   C     0.93430   0.21839   0.68922   0.03386  Uani   0.50
H264   H     0.95761   0.19328   0.64144   0.04000  Uiso   0.50
C265   C     0.78146   0.37131   0.69079   0.02884  Uani   0.50
H266   H     0.80729   0.34711   0.64503   0.03400  Uiso   0.50
C267   C     0.78148   0.43419   0.68906   0.03386  Uani   0.50
H268   H     0.80663   0.45747   0.64130   0.04000  Uiso   0.50
C269   C     0.71862   0.12844   0.69063   0.02884  Uani   0.50
H270   H     0.69291   0.15263   0.64474   0.03400  Uiso   0.50
C271   C     0.71864   0.06556   0.68887   0.03386  Uani   0.50
H272   H     0.69366   0.04228   0.64095   0.04000  Uiso   0.50
Cu273  Cu    0.74995   0.24988   0.75000   0.01134  Uani   1.00
Si274  Si    0.74997   0.24991   0.49996   0.01406  Uani   1.00
F275   F     0.74994   0.24993   0.88380   0.01749  Uani   1.00
F276   F     0.74997   0.24989   0.61615   0.01749  Uani   1.00
F277   F     0.69748   0.19590   0.49981   0.02209  Uani   0.28
F278   F     0.80242   0.30394   0.49989   0.02209  Uani   0.28
F279   F     0.80399   0.19744   0.49991   0.02209  Uani   0.28
F280   F     0.69595   0.30239   0.49990   0.02209  Uani   0.28
N281   N     0.65918   0.24984   0.75006   0.01514  Uani   1.00
C282   C     0.53337   0.24985   0.75011   0.01994  Uani   1.00
N283   N     0.84072   0.24984   0.75010   0.01514  Uani   1.00
C284   C     0.96654   0.24989   0.75012   0.01994  Uani   1.00
N285   N     0.74994   0.15911   0.75000   0.01514  Uani   1.00
C286   C     0.74998   0.03329   0.74990   0.01994  Uani   1.00
N287   N     0.74994   0.34065   0.74996   0.01514  Uani   1.00
C288   C     0.74993   0.46646   0.74988   0.01994  Uani   1.00
C289   C     0.37150   0.78143   0.80929   0.02884  Uani   0.50
H290   H     0.34732   0.80714   0.85520   0.03400  Uiso   0.50
C291   C     0.43438   0.78140   0.81101   0.03386  Uani   0.50
H292   H     0.45768   0.80640   0.85891   0.04000  Uiso   0.50
C293   C     0.12859   0.71856   0.80917   0.02884  Uani   0.50
H294   H     0.15279   0.69276   0.85498   0.03400  Uiso   0.50
C295   C     0.06571   0.71852   0.81085   0.03386  Uani   0.50
H296   H     0.04242   0.69338   0.85861   0.04000  Uiso   0.50
C297   C     0.21864   0.87149   0.80931   0.02884  Uani   0.50
H298   H     0.19288   0.84730   0.85515   0.03400  Uiso   0.50
C299   C     0.21865   0.93437   0.81104   0.03386  Uani   0.50
H300   H     0.19359   0.95766   0.85888   0.04000  Uiso   0.50
C301   C     0.28154   0.62862   0.80926   0.02884  Uani   0.50
H302   H     0.30731   0.65282   0.85508   0.03400  Uiso   0.50
C303   C     0.28156   0.56573   0.81097   0.03386  Uani   0.50
H304   H     0.30665   0.54245   0.85880   0.04000  Uiso   0.50
C305   C     0.12858   0.78149   0.69075   0.02884  Uani   0.50
H306   H     0.15276   0.80725   0.64489   0.03400  Uiso   0.50
C307   C     0.06570   0.78148   0.68905   0.03386  Uani   0.50
H308   H     0.04240   0.80658   0.64125   0.04000  Uiso   0.50
C309   C     0.37147   0.71876   0.69060   0.02884  Uani   0.50
H310   H     0.34728   0.69310   0.64465   0.03400  Uiso   0.50
C311   C     0.43436   0.71873   0.68891   0.03386  Uani   0.50
H312   H     0.45764   0.69372   0.64101   0.04000  Uiso   0.50
C313   C     0.28142   0.87151   0.69074   0.02884  Uani   0.50
H314   H     0.30712   0.84733   0.64481   0.03400  Uiso   0.50
C315   C     0.28144   0.93439   0.68906   0.03386  Uani   0.50
H316   H     0.30648   0.95768   0.64120   0.04000  Uiso   0.50
C317   C     0.21869   0.62859   0.69075   0.02884  Uani   0.50
H318   H     0.19296   0.65276   0.64485   0.03400  Uiso   0.50
C319   C     0.21868   0.56570   0.68909   0.03386  Uani   0.50
H320   H     0.19360   0.54240   0.64127   0.04000  Uiso   0.50
Cu321  Cu    0.25004   0.75005   0.75002   0.01134  Uani   1.00
Si322  Si    0.25002   0.75010   0.50007   0.01406  Uani   1.00
F323   F     0.25003   0.75006   0.88389   0.01749  Uani   1.00
F324   F     0.25001   0.75008   0.61623   0.01749  Uani   1.00
F325   F     0.19585   0.69778   0.50024   0.02209  Uani   0.28
F326   F     0.30419   0.80241   0.50026   0.02209  Uani   0.28
F327   F     0.30234   0.69593   0.50009   0.02209  Uani   0.28
F328   F     0.19770   0.80427   0.50013   0.02209  Uani   0.28
N329   N     0.15927   0.75005   0.74999   0.01514  Uani   1.00
C330   C     0.03345   0.75000   0.74995   0.01994  Uani   1.00
N331   N     0.34081   0.75009   0.74997   0.01514  Uani   1.00
C332   C     0.46662   0.75004   0.74997   0.01994  Uani   1.00
N333   N     0.25009   0.65928   0.75002   0.01514  Uani   1.00
C334   C     0.25011   0.53346   0.75006   0.01994  Uani   1.00
N335   N     0.25004   0.84082   0.75003   0.01514  Uani   1.00
C336   C     0.25005   0.96664   0.75006   0.01994  Uani   1.00
C337   C     0.87145   0.78136   0.80914   0.02884  Uani   0.50
H338   H     0.84725   0.80709   0.85500   0.03400  Uiso   0.50
C339   C     0.93434   0.78141   0.81085   0.03386  Uani   0.50
H340   H     0.95761   0.80652   0.85866   0.04000  Uiso   0.50
C341   C     0.62857   0.71860   0.80927   0.02884  Uani   0.50
H342   H     0.65275   0.69289   0.85519   0.03400  Uiso   0.50
C343   C     0.56569   0.71863   0.81099   0.03386  Uani   0.50
H344   H     0.54240   0.69362   0.85887   0.04000  Uiso   0.50
C345   C     0.71875   0.87130   0.80924   0.02884  Uani   0.50
H346   H     0.69314   0.84711   0.85522   0.03400  Uiso   0.50
C347   C     0.71874   0.93418   0.81096   0.03386  Uani   0.50
H348   H     0.69378   0.95745   0.85891   0.04000  Uiso   0.50
C349   C     0.78153   0.62842   0.80897   0.02884  Uani   0.50
H350   H     0.80734   0.65261   0.85477   0.03400  Uiso   0.50
C351   C     0.78153   0.56554   0.81067   0.03386  Uani   0.50
H352   H     0.80669   0.54224   0.85841   0.04000  Uiso   0.50
C353   C     0.62859   0.78132   0.69063   0.02884  Uani   0.50
H354   H     0.65278   0.80703   0.64474   0.03400  Uiso   0.50
C355   C     0.56571   0.78136   0.68895   0.03386  Uani   0.50
H356   H     0.54243   0.80640   0.64108   0.04000  Uiso   0.50
C357   C     0.87151   0.71845   0.69069   0.02884  Uani   0.50
H358   H     0.84734   0.69266   0.64486   0.03400  Uiso   0.50
C359   C     0.93439   0.71847   0.68901   0.03386  Uani   0.50
H360   H     0.95770   0.69337   0.64123   0.04000  Uiso   0.50
C361   C     0.78134   0.87134   0.69046   0.02884  Uani   0.50
H362   H     0.80701   0.84717   0.64450   0.03400  Uiso   0.50
C363   C     0.78131   0.93423   0.68875   0.03386  Uani   0.50
H364   H     0.80626   0.95753   0.64082   0.04000  Uiso   0.50
C365   C     0.71844   0.62843   0.69071   0.02884  Uani   0.50
H366   H     0.69259   0.65262   0.64496   0.03400  Uiso   0.50
C367   C     0.71839   0.56554   0.68904   0.03386  Uani   0.50
H368   H     0.69319   0.54225   0.64134   0.04000  Uiso   0.50
Cu369  Cu    0.75003   0.74987   0.74980   0.01134  Uani   1.00
Si370  Si    0.75005   0.74979   0.49974   0.01406  Uani   1.00
F371   F     0.75004   0.74982   0.88359   0.01749  Uani   1.00
F372   F     0.75003   0.74982   0.61594   0.01749  Uani   1.00
F373   F     0.69789   0.69546   0.49958   0.02209  Uani   0.28
F374   F     0.80229   0.80402   0.49961   0.02209  Uani   0.28
F375   F     0.80430   0.69756   0.49968   0.02209  Uani   0.28
F376   F     0.69574   0.80197   0.49968   0.02209  Uani   0.28
N377   N     0.65926   0.74993   0.74993   0.01514  Uani   1.00
C378   C     0.53344   0.75001   0.74997   0.01994  Uani   1.00
N379   N     0.84081   0.74990   0.74989   0.01514  Uani   1.00
C380   C     0.96662   0.74996   0.74993   0.01994  Uani   1.00
N381   N     0.75001   0.65910   0.74982   0.01514  Uani   1.00
C382   C     0.74995   0.53329   0.74986   0.01994  Uani   1.00
N383   N     0.75005   0.84064   0.74981   0.01514  Uani   1.00
C384   C     0.75000   0.96646   0.74986   0.01994  Uani   1.00
loop_
_atom_site_aniso_label
_atom_site_aniso_U_11
_atom_site_aniso_U_22
_atom_site_aniso_U_33
_atom_site_aniso_U_12
_atom_site_aniso_U_13
_atom_site_aniso_U_23
C1        0.01639   0.04508   0.02505  -0.00451   0.00298  -0.01093
C3        0.01537   0.05635   0.02987  -0.00615  -0.00497  -0.01490
C5        0.01639   0.04508   0.02505  -0.00451  -0.00298   0.01093
C7        0.01537   0.05635   0.02987  -0.00615   0.00497   0.01490
C9        0.04508   0.01639   0.02505   0.00451   0.01093   0.00298
C11       0.05635   0.01537   0.02987   0.00615   0.01490  -0.00497
C13       0.04508   0.01639   0.02505   0.00451  -0.01093  -0.00298
C15       0.05635   0.01537   0.02987   0.00615  -0.01490   0.00497
C17       0.01639   0.04508   0.02505   0.00451   0.00298   0.01093
C19       0.01537   0.05635   0.02987   0.00615  -0.00497   0.01490
C21       0.01639   0.04508   0.02505   0.00451  -0.00298  -0.01093
C23       0.01537   0.05635   0.02987   0.00615   0.00497  -0.01490
C25       0.04508   0.01639   0.02505  -0.00451   0.01093  -0.00298
C27       0.05635   0.01537   0.02987  -0.00615   0.01490   0.00497
C29       0.04508   0.01639   0.02505  -0.00451  -0.01093   0.00298
C31       0.05635   0.01537   0.02987  -0.00615  -0.01490  -0.00497
Cu33      0.00492   0.00492   0.02418   0.00000   0.00000   0.00000
Si34      0.01199   0.01199   0.01821   0.00000   0.00000   0.00000
F35       0.01660   0.01660   0.01927   0.00000   0.00000   0.00000
F36       0.01660   0.01660   0.01927   0.00000   0.00000   0.00000
F37       0.01434   0.01434   0.03758  -0.00102   0.00000   0.00000
F38       0.01434   0.01434   0.03758  -0.00102   0.00000   0.00000
F39       0.01434   0.01434   0.03758   0.00102   0.00000   0.00000
F40       0.01434   0.01434   0.03758   0.00102   0.00000   0.00000
N41       0.01065   0.00973   0.02505   0.00000   0.00000   0.00000
C42       0.01127   0.02254   0.02601   0.00000   0.00000   0.00000
N43       0.01065   0.00973   0.02505   0.00000   0.00000   0.00000
C44       0.01127   0.02254   0.02601   0.00000   0.00000   0.00000
N45       0.00973   0.01065   0.02505   0.00000   0.00000   0.00000
C46       0.02254   0.01127   0.02601   0.00000   0.00000   0.00000
N47       0.00973   0.01065   0.02505   0.00000   0.00000   0.00000
C48       0.02254   0.01127   0.02601   0.00000   0.00000   0.00000
C49       0.01639   0.04508   0.02505  -0.00451   0.00298  -0.01093
C51       0.01537   0.05635   0.02987  -0.00615  -0.00497  -0.01490
C53       0.01639   0.04508   0.02505  -0.00451  -0.00298   0.01093
C55       0.01537   0.05635   0.02987  -0.00615   0.00497   0.01490
C57       0.04508   0.01639   0.02505   0.00451   0.01093   0.00298
C59       0.05635   0.01537   0.02987   0.00615   0.01490  -0.00497
C61       0.04508   0.01639   0.02505   0.00451  -0.01093  -0.00298
C63       0.05635   0.01537   0.02987   0.00615  -0.01490   0.00497
C65       0.01639   0.04508   0.02505   0.00451   0.00298   0.01093
C67       0.01537   0.05635   0.02987   0.00615  -0.00497   0.01490
C69       0.01639   0.04508   0.02505   0.00451  -0.00298  -0.01093
C71       0.01537   0.05635   0.02987   0.00615   0.00497  -0.01490
C73       0.04508   0.01639   0.02505  -0.00451   0.01093  -0.00298
C75       0.05635   0.01537   0.02987  -0.00615   0.01490   0.00497
C77       0.04508   0.01639   0.02505  -0.00451  -0.01093   0.00298
C79       0.05635   0.01537   0.02987  -0.00615  -0.01490  -0.00497
Cu81      0.00492   0.00492   0.02418   0.00000   0.00000   0.00000
Si82      0.01199   0.01199   0.01821   0.00000   0.00000   0.00000
F83       0.01660   0.01660   0.01927   0.00000   0.00000   0.00000
F84       0.01660   0.01660   0.01927   0.00000   0.00000   0.00000
F85       0.01434   0.01434   0.03758  -0.00102   0.00000   0.00000
F86       0.01434   0.01434   0.03758  -0.00102   0.00000   0.00000
F87       0.01434   0.01434   0.03758   0.00102   0.00000   0.00000
F88       0.01434   0.01434   0.03758   0.00102   0.00000   0.00000
N89       0.01065   0.00973   0.02505   0.00000   0.00000   0.00000
C90       0.01127   0.02254   0.02601   0.00000   0.00000   0.00000
N91       0.01065   0.00973   0.02505   0.00000   0.00000   0.00000
C92       0.01127   0.02254   0.02601   0.00000   0.00000   0.00000
N93       0.00973   0.01065   0.02505   0.00000   0.00000   0.00000
C94       0.02254   0.01127   0.02601   0.00000   0.00000   0.00000
N95       0.00973   0.01065   0.02505   0.00000   0.00000   0.00000
C96       0.02254   0.01127   0.02601   0.00000   0.00000   0.00000
C97       0.01639   0.04508   0.02505  -0.00451   0.00298  -0.01093
C99       0.01537   0.05635   0.02987  -0.00615  -0.00497  -0.01490
C101      0.01639   0.04508   0.02505  -0.00451  -0.00298   0.01093
C103      0.01537   0.05635   0.02987  -0.00615   0.00497   0.01490
C105      0.04508   0.01639   0.02505   0.00451   0.01093   0.00298
C107      0.05635   0.01537   0.02987   0.00615   0.01490  -0.00497
C109      0.04508   0.01639   0.02505   0.00451  -0.01093  -0.00298
C111      0.05635   0.01537   0.02987   0.00615  -0.01490   0.00497
C113      0.01639   0.04508   0.02505   0.00451   0.00298   0.01093
C115      0.01537   0.05635   0.02987   0.00615  -0.00497   0.01490
C117      0.01639   0.04508   0.02505   0.00451  -0.00298  -0.01093
C119      0.01537   0.05635   0.02987   0.00615   0.00497  -0.01490
C121      0.04508   0.01639   0.02505  -0.00451   0.01093  -0.00298
C123      0.05635   0.01537   0.02987  -0.00615   0.01490   0.00497
C125      0.04508   0.01639   0.02505  -0.00451  -0.01093   0.00298
C127      0.05635   0.01537   0.02987  -0.00615  -0.01490  -0.00497
Cu129     0.00492   0.00492   0.02418   0.00000   0.00000   0.00000
Si130     0.01199   0.01199   0.01821   0.00000   0.00000   0.00000
F131      0.01660   0.01660   0.01927   0.00000   0.00000   0.00000
F132      0.01660   0.01660   0.01927   0.00000   0.00000   0.00000
F133      0.01434   0.01434   0.03758  -0.00102   0.00000   0.00000
F134      0.01434   0.01434   0.03758  -0.00102   0.00000   0.00000
F135      0.01434   0.01434   0.03758   0.00102   0.00000   0.00000
F136      0.01434   0.01434   0.03758   0.00102   0.00000   0.00000
N137      0.01065   0.00973   0.02505   0.00000   0.00000   0.00000
C138      0.01127   0.02254   0.02601   0.00000   0.00000   0.00000
N139      0.01065   0.00973   0.02505   0.00000   0.00000   0.00000
C140      0.01127   0.02254   0.02601   0.00000   0.00000   0.00000
N141      0.00973   0.01065   0.02505   0.00000   0.00000   0.00000
C142      0.02254   0.01127   0.02601   0.00000   0.00000   0.00000
N143      0.00973   0.01065   0.02505   0.00000   0.00000   0.00000
C144      0.02254   0.01127   0.02601   0.00000   0.00000   0.00000
C145      0.01639   0.04508   0.02505  -0.00451   0.00298  -0.01093
C147      0.01537   0.05635   0.02987  -0.00615  -0.00497  -0.01490
C149      0.01639   0.04508   0.02505  -0.00451  -0.00298   0.01093
C151      0.01537   0.05635   0.02987  -0.00615   0.00497   0.01490
C153      0.04508   0.01639   0.02505   0.00451   0.01093   0.00298
C155      0.05635   0.01537   0.02987   0.00615   0.01490  -0.00497
C157      0.04508   0.01639   0.02505   0.00451  -0.01093  -0.00298
C159      0.05635   0.01537   0.02987   0.00615  -0.01490   0.00497
C161      0.01639   0.04508   0.02505   0.00451   0.00298   0.01093
C163      0.01537   0.05635   0.02987   0.00615  -0.00497   0.01490
C165      0.01639   0.04508   0.02505   0.00451  -0.00298  -0.01093
C167      0.01537   0.05635   0.02987   0.00615   0.00497  -0.01490
C169      0.04508   0.01639   0.02505  -0.00451   0.01093  -0.00298
C171      0.05635   0.01537   0.02987  -0.00615   0.01490   0.00497
C173      0.04508   0.01639   0.02505  -0.00451  -0.01093   0.00298
C175      0.05635   0.01537   0.02987  -0.00615  -0.01490  -0.00497
Cu177     0.00492   0.00492   0.02418   0.00000   0.00000   0.00000
Si178     0.01199   0.01199   0.01821   0.00000   0.00000   0.00000
F179      0.01660   0.01660   0.01927   0.00000   0.00000   0.00000
F180      0.01660   0.01660   0.01927   0.00000   0.00000   0.00000
F181      0.01434   0.01434   0.03758  -0.00102   0.00000   0.00000
F182      0.01434   0.01434   0.03758  -0.00102   0.00000   0.00000
F183      0.01434   0.01434   0.03758   0.00102   0.00000   0.00000
F184      0.01434   0.01434   0.03758   0.00102   0.00000   0.00000
N185      0.01065   0.00973   0.02505   0.00000   0.00000   0.00000
C186      0.01127   0.02254   0.02601   0.00000   0.00000   0.00000
N187      0.01065   0.00973   0.02505   0.00000   0.00000   0.00000
C188      0.01127   0.02254   0.02601   0.00000   0.00000   0.00000
N189      0.00973   0.01065   0.02505   0.00000   0.00000   0.00000
C190      0.02254   0.01127   0.02601   0.00000   0.00000   0.00000
N191      0.00973   0.01065   0.02505   0.00000   0.00000   0.00000
C192      0.02254   0.01127   0.02601   0.00000   0.00000   0.00000
C193      0.01639   0.04508   0.02505  -0.00451   0.00298  -0.01093
C195      0.01537   0.05635   0.02987  -0.00615  -0.00497  -0.01490
C197      0.01639   0.04508   0.02505  -0.00451  -0.00298   0.01093
C199      0.01537   0.05635   0.02987  -0.00615   0.00497   0.01490
C201      0.04508   0.01639   0.02505   0.00451   0.01093   0.00298
C203      0.05635   0.01537   0.02987   0.00615   0.01490  -0.00497
C205      0.04508   0.01639   0.02505   0.00451  -0.01093  -0.00298
C207      0.05635   0.01537   0.02987   0.00615  -0.01490   0.00497
C209      0.01639   0.04508   0.02505   0.00451   0.00298   0.01093
C211      0.01537   0.05635   0.02987   0.00615  -0.00497   0.01490
C213      0.01639   0.04508   0.02505   0.00451  -0.00298  -0.01093
C215      0.01537   0.05635   0.02987   0.00615   0.00497  -0.01490
C217      0.04508   0.01639   0.02505  -0.00451   0.01093  -0.00298
C219      0.05635   0.01537   0.02987  -0.00615   0.01490   0.00497
C221      0.04508   0.01639   0.02505  -0.00451  -0.01093   0.00298
C223      0.05635   0.01537   0.02987  -0.00615  -0.01490  -0.00497
Cu225     0.00492   0.00492   0.02418   0.00000   0.00000   0.00000
Si226     0.01199   0.01199   0.01821   0.00000   0.00000   0.00000
F227      0.01660   0.01660   0.01927   0.00000   0.00000   0.00000
F228      0.01660   0.01660   0.01927   0.00000   0.00000   0.00000
F229      0.01434   0.01434   0.03758  -0.00102   0.00000   0.00000
F230      0.01434   0.01434   0.03758  -0.00102   0.00000   0.00000
F231      0.01434   0.01434   0.03758   0.00102   0.00000   0.00000
F232      0.01434   0.01434   0.03758   0.00102   0.00000   0.00000
N233      0.01065   0.00973   0.02505   0.00000   0.00000   0.00000
C234      0.01127   0.02254   0.02601   0.00000   0.00000   0.00000
N235      0.01065   0.00973   0.02505   0.00000   0.00000   0.00000
C236      0.01127   0.02254   0.02601   0.00000   0.00000   0.00000
N237      0.00973   0.01065   0.02505   0.00000   0.00000   0.00000
C238      0.02254   0.01127   0.02601   0.00000   0.00000   0.00000
N239      0.00973   0.01065   0.02505   0.00000   0.00000   0.00000
C240      0.02254   0.01127   0.02601   0.00000   0.00000   0.00000
C241      0.01639   0.04508   0.02505  -0.00451   0.00298  -0.01093
C243      0.01537   0.05635   0.02987  -0.00615  -0.00497  -0.01490
C245      0.01639   0.04508   0.02505  -0.00451  -0.00298   0.01093
C247      0.01537   0.05635   0.02987  -0.00615   0.00497   0.01490
C249      0.04508   0.01639   0.02505   0.00451   0.01093   0.00298
C251      0.05635   0.01537   0.02987   0.00615   0.01490  -0.00497
C253      0.04508   0.01639   0.02505   0.00451  -0.01093  -0.00298
C255      0.05635   0.01537   0.02987   0.00615  -0.01490   0.00497
C257      0.01639   0.04508   0.02505   0.00451   0.00298   0.01093
C259      0.01537   0.05635   0.02987   0.00615  -0.00497   0.01490
C261      0.01639   0.04508   0.02505   0.00451  -0.00298  -0.01093
C263      0.01537   0.05635   0.02987   0.00615   0.00497  -0.01490
C265      0.04508   0.01639   0.02505  -0.00451   0.01093  -0.00298
C267      0.05635   0.01537   0.02987  -0.00615   0.01490   0.00497
C269      0.04508   0.01639   0.02505  -0.00451  -0.01093   0.00298
C271      0.05635   0.01537   0.02987  -0.00615  -0.01490  -0.00497
Cu273     0.00492   0.00492   0.02418   0.00000   0.00000   0.00000
Si274     0.01199   0.01199   0.01821   0.00000   0.00000   0.00000
F275      0.01660   0.01660   0.01927   0.00000   0.00000   0.00000
F276      0.01660   0.01660   0.01927   0.00000   0.00000   0.00000
F277      0.01434   0.01434   0.03758  -0.00102   0.00000   0.00000
F278      0.01434   0.01434   0.03758  -0.00102   0.00000   0.00000
F279      0.01434   0.01434   0.03758   0.00102   0.00000   0.00000
F280      0.01434   0.01434   0.03758   0.00102   0.00000   0.00000
N281      0.01065   0.00973   0.02505   0.00000   0.00000   0.00000
C282      0.01127   0.02254   0.02601   0.00000   0.00000   0.00000
N283      0.01065   0.00973   0.02505   0.00000   0.00000   0.00000
C284      0.01127   0.02254   0.02601   0.00000   0.00000   0.00000
N285      0.00973   0.01065   0.02505   0.00000   0.00000   0.00000
C286      0.02254   0.01127   0.02601   0.00000   0.00000   0.00000
N287      0.00973   0.01065   0.02505   0.00000   0.00000   0.00000
C288      0.02254   0.01127   0.02601   0.00000   0.00000   0.00000
C289      0.01639   0.04508   0.02505  -0.00451   0.00298  -0.01093
C291      0.01537   0.05635   0.02987  -0.00615  -0.00497  -0.01490
C293      0.01639   0.04508   0.02505  -0.00451  -0.00298   0.01093
C295      0.01537   0.05635   0.02987  -0.00615   0.00497   0.01490
C297      0.04508   0.01639   0.02505   0.00451   0.01093   0.00298
C299      0.05635   0.01537   0.02987   0.00615   0.01490  -0.00497
C301      0.04508   0.01639   0.02505   0.00451  -0.01093  -0.00298
C303      0.05635   0.01537   0.02987   0.00615  -0.01490   0.00497
C305      0.01639   0.04508   0.02505   0.00451   0.00298   0.01093
C307      0.01537   0.05635   0.02987   0.00615  -0.00497   0.01490
C309      0.01639   0.04508   0.02505   0.00451  -0.00298  -0.01093
C311      0.01537   0.05635   0.02987   0.00615   0.00497  -0.01490
C313      0.04508   0.01639   0.02505  -0.00451   0.01093  -0.00298
C315      0.05635   0.01537   0.02987  -0.00615   0.01490   0.00497
C317      0.04508   0.01639   0.02505  -0.00451  -0.01093   0.00298
C319      0.05635   0.01537   0.02987  -0.00615  -0.01490  -0.00497
Cu321     0.00492   0.00492   0.02418   0.00000   0.00000   0.00000
Si322     0.01199   0.01199   0.01821   0.00000   0.00000   0.00000
F323      0.01660   0.01660   0.01927   0.00000   0.00000   0.00000
F324      0.01660   0.01660   0.01927   0.00000   0.00000   0.00000
F325      0.01434   0.01434   0.03758  -0.00102   0.00000   0.00000
F326      0.01434   0.01434   0.03758  -0.00102   0.00000   0.00000
F327      0.01434   0.01434   0.03758   0.00102   0.00000   0.00000
F328      0.01434   0.01434   0.03758   0.00102   0.00000   0.00000
N329      0.01065   0.00973   0.02505   0.00000   0.00000   0.00000
C330      0.01127   0.02254   0.02601   0.00000   0.00000   0.00000
N331      0.01065   0.00973   0.02505   0.00000   0.00000   0.00000
C332      0.01127   0.02254   0.02601   0.00000   0.00000   0.00000
N333      0.00973   0.01065   0.02505   0.00000   0.00000   0.00000
C334      0.02254   0.01127   0.02601   0.00000   0.00000   0.00000
N335      0.00973   0.01065   0.02505   0.00000   0.00000   0.00000
C336      0.02254   0.01127   0.02601   0.00000   0.00000   0.00000
C337      0.01639   0.04508   0.02505  -0.00451   0.00298  -0.01093
C339      0.01537   0.05635   0.02987  -0.00615  -0.00497  -0.01490
C341      0.01639   0.04508   0.02505  -0.00451  -0.00298   0.01093
C343      0.01537   0.05635   0.02987  -0.00615   0.00497   0.01490
C345      0.04508   0.01639   0.02505   0.00451   0.01093   0.00298
C347      0.05635   0.01537   0.02987   0.00615   0.01490  -0.00497
C349      0.04508   0.01639   0.02505   0.00451  -0.01093  -0.00298
C351      0.05635   0.01537   0.02987   0.00615  -0.01490   0.00497
C353      0.01639   0.04508   0.02505   0.00451   0.00298   0.01093
C355      0.01537   0.05635   0.02987   0.00615  -0.00497   0.01490
C357      0.01639   0.04508   0.02505   0.00451  -0.00298  -0.01093
C359      0.01537   0.05635   0.02987   0.00615   0.00497  -0.01490
C361      0.04508   0.01639   0.02505  -0.00451   0.01093  -0.00298
C363      0.05635   0.01537   0.02987  -0.00615   0.01490   0.00497
C365      0.04508   0.01639   0.02505  -0.00451  -0.01093   0.00298
C367      0.05635   0.01537   0.02987  -0.00615  -0.01490  -0.00497
Cu369     0.00492   0.00492   0.02418   0.00000   0.00000   0.00000
Si370     0.01199   0.01199   0.01821   0.00000   0.00000   0.00000
F371      0.01660   0.01660   0.01927   0.00000   0.00000   0.00000
F372      0.01660   0.01660   0.01927   0.00000   0.00000   0.00000
F373      0.01434   0.01434   0.03758  -0.00102   0.00000   0.00000
F374      0.01434   0.01434   0.03758  -0.00102   0.00000   0.00000
F375      0.01434   0.01434   0.03758   0.00102   0.00000   0.00000
F376      0.01434   0.01434   0.03758   0.00102   0.00000   0.00000
N377      0.01065   0.00973   0.02505   0.00000   0.00000   0.00000
C378      0.01127   0.02254   0.02601   0.00000   0.00000   0.00000
N379      0.01065   0.00973   0.02505   0.00000   0.00000   0.00000
C380      0.01127   0.02254   0.02601   0.00000   0.00000   0.00000
N381      0.00973   0.01065   0.02505   0.00000   0.00000   0.00000
C382      0.02254   0.01127   0.02601   0.00000   0.00000   0.00000
N383      0.00973   0.01065   0.02505   0.00000   0.00000   0.00000
C384      0.02254   0.01127   0.02601   0.00000   0.00000   0.00000
loop_
_geom_bond_atom_site_label_1
_geom_bond_atom_site_label_2
_geom_bond_distance
_geom_bond_site_symmetry_2
_ccdc_geom_bond_type
C1     N43     1.366   .     D
C1     C3      1.406   .     S
C1     H2      1.079   .     S
C3     C44     1.403   .     D
C3     H4      1.083   .     S
C5     N41     1.366   .     D
C5     C7      1.406   .     S
C5     H6      1.079   .     S
C7     C42     1.403   .     D
C7     H8      1.083   .     S
C9     N47     1.366   .     D
C9     C11     1.406   .     S
C9     H10     1.079   .     S
C11    C48     1.403   .     D
C11    H12     1.083   .     S
C13    N45     1.365   .     D
C13    C15     1.406   .     S
C13    H14     1.079   .     S
C15    C46     1.403   .     D
C15    H16     1.083   .     S
C17    N41     1.366   .     S
C17    C19     1.406   .     D
C17    H18     1.079   .     S
C19    C42     1.403   .     S
C19    H20     1.083   .     S
C21    N43     1.366   .     S
C21    C23     1.406   .     D
C21    H22     1.079   .     S
C23    C44     1.403   .     S
C23    H24     1.083   .     S
C25    N47     1.366   .     S
C25    C27     1.406   .     D
C25    H26     1.079   .     S
C27    C48     1.403   .     S
C27    H28     1.083   .     S
C29    N45     1.366   .     S
C29    C31     1.406   .     D
C29    H30     1.079   .     S
C31    C46     1.403   .     S
C31    H32     1.083   .     S
Cu33   N41     2.029   .     S
Cu33   N43     2.030   .     S
Cu33   N45     2.030   .     S
Cu33   N47     2.030   .     S
Cu33   F36     2.144   .     S
Cu33   F35     2.145   .     S
Si34   F37     1.684   .     S
Si34   F38     1.684   .     S
Si34   F39     1.684   .     S
Si34   F40     1.684   .     S
Si34   F36     1.862   .     S
Si34   F227    1.862   1_554 S
F35    Si226   1.862   .     S
C42    C92     1.494   1_455 S
C44    C90     1.494   .     S
C46    C144    1.494   1_545 S
C48    C142    1.494   .     S
C49    N91     1.366   .     D
C49    C51     1.406   .     S
C49    H50     1.079   .     S
C51    C92     1.403   .     D
C51    H52     1.083   .     S
C53    N89     1.366   .     D
C53    C55     1.406   .     S
C53    H54     1.079   .     S
C55    C90     1.403   .     D
C55    H56     1.083   .     S
C57    N95     1.366   .     D
C57    C59     1.406   .     S
C57    H58     1.079   .     S
C59    C96     1.403   .     D
C59    H60     1.083   .     S
C61    N93     1.366   .     D
C61    C63     1.406   .     S
C61    H62     1.079   .     S
C63    C94     1.403   .     D
C63    H64     1.083   .     S
C65    N89     1.366   .     S
C65    C67     1.406   .     D
C65    H66     1.079   .     S
C67    C90     1.403   .     S
C67    H68     1.083   .     S
C69    N91     1.366   .     S
C69    C71     1.406   .     D
C69    H70     1.079   .     S
C71    C92     1.403   .     S
C71    H72     1.083   .     S
C73    N95     1.366   .     S
C73    C75     1.406   .     D
C73    H74     1.079   .     S
C75    C96     1.403   .     S
C75    H76     1.083   .     S
C77    N93     1.366   .     S
C77    C79     1.406   .     D
C77    H78     1.079   .     S
C79    C94     1.403   .     S
C79    H80     1.083   .     S
Cu81   N89     2.030   .     S
Cu81   N91     2.029   .     S
Cu81   N93     2.030   .     S
Cu81   N95     2.029   .     S
Cu81   F84     2.145   .     S
Cu81   F83     2.144   .     S
Si82   F85     1.684   .     S
Si82   F86     1.684   .     S
Si82   F87     1.684   .     S
Si82   F88     1.684   .     S
Si82   F84     1.862   .     S
Si82   F275    1.861   1_554 S
F83    Si274   1.861   .     S
C92    C42     1.494   1_655 S
C94    C192    1.494   1_545 S
C96    C190    1.494   .     S
C97    N139    1.366   .     D
C97    C99     1.406   .     S
C97    H98     1.079   .     S
C99    C140    1.403   .     D
C99    H100    1.083   .     S
C101   N137    1.366   .     D
C101   C103    1.406   .     S
C101   H102    1.079   .     S
C103   C138    1.403   .     D
C103   H104    1.083   .     S
C105   N143    1.366   .     D
C105   C107    1.406   .     S
C105   H106    1.079   .     S
C107   C144    1.403   .     D
C107   H108    1.083   .     S
C109   N141    1.366   .     D
C109   C111    1.406   .     S
C109   H110    1.079   .     S
C111   C142    1.403   .     D
C111   H112    1.083   .     S
C113   N137    1.366   .     S
C113   C115    1.406   .     D
C113   H114    1.079   .     S
C115   C138    1.403   .     S
C115   H116    1.083   .     S
C117   N139    1.366   .     S
C117   C119    1.406   .     D
C117   H118    1.079   .     S
C119   C140    1.403   .     S
C119   H120    1.083   .     S
C121   N143    1.366   .     S
C121   C123    1.406   .     D
C121   H122    1.079   .     S
C123   C144    1.403   .     S
C123   H124    1.083   .     S
C125   N141    1.366   .     S
C125   C127    1.406   .     D
C125   H126    1.079   .     S
C127   C142    1.403   .     S
C127   H128    1.083   .     S
Cu129  N137    2.029   .     S
Cu129  N139    2.030   .     S
Cu129  N141    2.029   .     S
Cu129  N143    2.030   .     S
Cu129  F132    2.144   .     S
Cu129  F131    2.145   .     S
Si130  F133    1.684   .     S
Si130  F134    1.684   .     S
Si130  F135    1.684   .     S
Si130  F136    1.684   .     S
Si130  F132    1.861   .     S
Si130  F323    1.862   1_554 S
F131   Si322   1.862   .     S
C138   C188    1.494   1_455 S
C140   C186    1.494   .     S
C144   C46     1.494   1_565 S
C145   N187    1.366   .     D
C145   C147    1.406   .     S
C145   H146    1.079   .     S
C147   C188    1.403   .     D
C147   H148    1.083   .     S
C149   N185    1.366   .     D
C149   C151    1.406   .     S
C149   H150    1.079   .     S
C151   C186    1.403   .     D
C151   H152    1.083   .     S
C153   N191    1.366   .     D
C153   C155    1.406   .     S
C153   H154    1.079   .     S
C155   C192    1.403   .     D
C155   H156    1.083   .     S
C157   N189    1.366   .     D
C157   C159    1.406   .     S
C157   H158    1.079   .     S
C159   C190    1.403   .     D
C159   H160    1.083   .     S
C161   N185    1.366   .     S
C161   C163    1.406   .     D
C161   H162    1.079   .     S
C163   C186    1.403   .     S
C163   H164    1.083   .     S
C165   N187    1.366   .     S
C165   C167    1.406   .     D
C165   H166    1.079   .     S
C167   C188    1.403   .     S
C167   H168    1.083   .     S
C169   N191    1.366   .     S
C169   C171    1.406   .     D
C169   H170    1.079   .     S
C171   C192    1.403   .     S
C171   H172    1.083   .     S
C173   N189    1.366   .     S
C173   C175    1.406   .     D
C173   H174    1.079   .     S
C175   C190    1.403   .     S
C175   H176    1.083   .     S
Cu177  N185    2.030   .     S
Cu177  N187    2.030   .     S
Cu177  N189    2.029   .     S
Cu177  N191    2.030   .     S
Cu177  F180    2.145   .     S
Cu177  F179    2.144   .     S
Si178  F181    1.684   .     S
Si178  F182    1.684   .     S
Si178  F183    1.684   .     S
Si178  F184    1.684   .     S
Si178  F180    1.862   .     S
Si178  F371    1.861   1_554 S
F179   Si370   1.861   .     S
C188   C138    1.494   1_655 S
C192   C94     1.494   1_565 S
C193   N235    1.366   .     D
C193   C195    1.406   .     S
C193   H194    1.079   .     S
C195   C236    1.403   .     D
C195   H196    1.083   .     S
C197   N233    1.366   .     D
C197   C199    1.406   .     S
C197   H198    1.079   .     S
C199   C234    1.403   .     D
C199   H200    1.083   .     S
C201   N239    1.366   .     S
C201   C203    1.406   .     D
C201   H202    1.079   .     S
C203   C240    1.403   .     S
C203   H204    1.083   .     S
C205   N237    1.366   .     D
C205   C207    1.406   .     S
C205   H206    1.079   .     S
C207   C238    1.403   .     D
C207   H208    1.083   .     S
C209   N233    1.366   .     S
C209   C211    1.406   .     D
C209   H210    1.079   .     S
C211   C234    1.403   .     S
C211   H212    1.083   .     S
C213   N235    1.366   .     S
C213   C215    1.406   .     D
C213   H214    1.079   .     S
C215   C236    1.403   .     S
C215   H216    1.083   .     S
C217   N239    1.366   .     D
C217   C219    1.406   .     S
C217   H218    1.079   .     S
C219   C240    1.403   .     D
C219   H220    1.083   .     S
C221   N237    1.366   .     S
C221   C223    1.406   .     D
C221   H222    1.079   .     S
C223   C238    1.403   .     S
C223   H224    1.083   .     S
Cu225  N233    2.030   .     S
Cu225  N235    2.030   .     S
Cu225  N237    2.030   .     S
Cu225  N239    2.030   .     S
Cu225  F228    2.144   .     S
Cu225  F227    2.145   .     S
Si226  F229    1.684   .     S
Si226  F230    1.684   .     S
Si226  F231    1.684   .     S
Si226  F232    1.684   .     S
Si226  F228    1.862   .     S
F227   Si34    1.862   1_556 S
C234   C284    1.494   1_455 S
C236   C282    1.494   .     S
C238   C336    1.494   1_545 S
C240   C334    1.494   .     S
C241   N283    1.366   .     D
C241   C243    1.406   .     S
C241   H242    1.079   .     S
C243   C284    1.403   .     D
C243   H244    1.083   .     S
C245   N281    1.366   .     S
C245   C247    1.406   .     D
C245   H246    1.079   .     S
C247   C282    1.403   .     S
C247   H248    1.083   .     S
C249   N287    1.366   .     D
C249   C251    1.406   .     S
C249   H250    1.079   .     S
C251   C288    1.403   .     D
C251   H252    1.083   .     S
C253   N285    1.366   .     D
C253   C255    1.406   .     S
C253   H254    1.079   .     S
C255   C286    1.403   .     D
C255   H256    1.083   .     S
C257   N281    1.366   .     D
C257   C259    1.406   .     S
C257   H258    1.079   .     S
C259   C282    1.403   .     D
C259   H260    1.083   .     S
C261   N283    1.366   .     S
C261   C263    1.406   .     D
C261   H262    1.079   .     S
C263   C284    1.403   .     S
C263   H264    1.083   .     S
C265   N287    1.366   .     S
C265   C267    1.406   .     D
C265   H266    1.079   .     S
C267   C288    1.403   .     S
C267   H268    1.083   .     S
C269   N285    1.366   .     S
C269   C271    1.406   .     D
C269   H270    1.079   .     S
C271   C286    1.403   .     S
C271   H272    1.083   .     S
Cu273  N281    2.030   .     S
Cu273  N283    2.030   .     S
Cu273  N285    2.030   .     S
Cu273  N287    2.030   .     S
Cu273  F276    2.145   .     S
Cu273  F275    2.144   .     S
Si274  F277    1.684   .     S
Si274  F278    1.684   .     S
Si274  F279    1.684   .     S
Si274  F280    1.684   .     S
Si274  F276    1.862   .     S
F275   Si82    1.861   1_556 S
C284   C234    1.494   1_655 S
C286   C384    1.494   1_545 S
C288   C382    1.494   .     S
C289   N331    1.366   .     D
C289   C291    1.406   .     S
C289   H290    1.079   .     S
C291   C332    1.403   .     D
C291   H292    1.083   .     S
C293   N329    1.366   .     D
C293   C295    1.406   .     S
C293   H294    1.079   .     S
C295   C330    1.403   .     D
C295   H296    1.083   .     S
C297   N335    1.366   .     D
C297   C299    1.406   .     S
C297   H298    1.079   .     S
C299   C336    1.403   .     D
C299   H300    1.083   .     S
C301   N333    1.366   .     D
C301   C303    1.406   .     S
C301   H302    1.079   .     S
C303   C334    1.403   .     D
C303   H304    1.083   .     S
C305   N329    1.366   .     S
C305   C307    1.406   .     D
C305   H306    1.079   .     S
C307   C330    1.403   .     S
C307   H308    1.083   .     S
C309   N331    1.366   .     S
C309   C311    1.406   .     D
C309   H310    1.079   .     S
C311   C332    1.403   .     S
C311   H312    1.083   .     S
C313   N335    1.366   .     S
C313   C315    1.406   .     D
C313   H314    1.079   .     S
C315   C336    1.403   .     S
C315   H316    1.083   .     S
C317   N333    1.366   .     S
C317   C319    1.406   .     D
C317   H318    1.079   .     S
C319   C334    1.403   .     S
C319   H320    1.083   .     S
Cu321  N329    2.030   .     S
Cu321  N331    2.030   .     S
Cu321  N333    2.030   .     S
Cu321  N335    2.030   .     S
Cu321  F324    2.144   .     S
Cu321  F323    2.145   .     S
Si322  F325    1.684   .     S
Si322  F326    1.684   .     S
Si322  F327    1.684   .     S
Si322  F328    1.684   .     S
Si322  F324    1.861   .     S
F323   Si130   1.862   1_556 S
C330   C380    1.494   1_455 S
C332   C378    1.494   .     S
C336   C238    1.494   1_565 S
C337   N379    1.366   .     D
C337   C339    1.406   .     S
C337   H338    1.079   .     S
C339   C380    1.403   .     D
C339   H340    1.083   .     S
C341   N377    1.366   .     D
C341   C343    1.406   .     S
C341   H342    1.079   .     S
C343   C378    1.403   .     D
C343   H344    1.083   .     S
C345   N383    1.366   .     D
C345   C347    1.406   .     S
C345   H346    1.079   .     S
C347   C384    1.403   .     D
C347   H348    1.083   .     S
C349   N381    1.366   .     S
C349   C351    1.406   .     D
C349   H350    1.079   .     S
C351   C382    1.403   .     S
C351   H352    1.083   .     S
C353   N377    1.366   .     S
C353   C355    1.406   .     D
C353   H354    1.079   .     S
C355   C378    1.403   .     S
C355   H356    1.083   .     S
C357   N379    1.366   .     S
C357   C359    1.406   .     D
C357   H358    1.079   .     S
C359   C380    1.403   .     S
C359   H360    1.083   .     S
C361   N383    1.366   .     S
C361   C363    1.406   .     D
C361   H362    1.079   .     S
C363   C384    1.403   .     S
C363   H364    1.083   .     S
C365   N381    1.366   .     D
C365   C367    1.406   .     S
C365   H366    1.079   .     S
C367   C382    1.403   .     D
C367   H368    1.083   .     S
Cu369  N377    2.029   .     S
Cu369  N379    2.030   .     S
Cu369  N381    2.030   .     S
Cu369  N383    2.030   .     S
Cu369  F372    2.145   .     S
Cu369  F371    2.144   .     S
Si370  F373    1.684   .     S
Si370  F374    1.684   .     S
Si370  F375    1.684   .     S
Si370  F376    1.684   .     S
Si370  F372    1.862   .     S
F371   Si178   1.861   1_556 S
C380   C330    1.494   1_655 S
C384   C286    1.494   1_565 S
